OPT_V8/Brussels_test_1203-1157/powerflow_results_t10.txt
Pandapower Network Debug Info
==================================================

BUS:
       vm_pu  va_degree          p_mw    q_mvar
0   0.996416   0.262928 -2.961840e-05  0.000966
1   0.994166   0.428455 -6.704723e-06  0.001933
2   0.992101   0.580803  0.000000e+00  0.002899
3   0.994389   0.412194 -5.178755e-07  0.003866
4   0.994253   0.423292 -1.513424e-05  0.004832
5   0.995734   0.306824 -1.098917e-03  0.005798
6   0.994060   0.310014  1.158230e-03  0.000966
7   0.998888   0.081877 -3.351069e-06  0.001933
8   0.998863   0.083267 -3.416275e-06  0.002899
9   0.999952   0.003514 -3.153022e-07  0.009664
10  0.999947   0.003897 -5.632433e-08  0.008698
11  0.999943   0.004195  0.000000e+00  0.010630
12  0.999905   0.006973 -2.172417e-08  0.005798
13  0.999893   0.007795 -5.120454e-08  0.009664
14  0.999897   0.007524 -1.259473e-07  0.011597
15  0.999970   0.002230  0.000000e+00  0.000000
16  0.999970   0.002236  0.000000e+00  0.000000
17  0.999906   0.006858  0.000000e+00  0.000000
18  0.999906   0.006868  0.000000e+00  0.000000
19  1.000000   0.000000 -6.121170e-05 -0.043717
20  1.000000   0.000006  0.000000e+00  0.000000
21  1.000000   0.000000 -1.423204e-04 -0.048554
22  1.000000   0.000007  0.000000e+00  0.000000
--------------------------------------------------

LINE:
       p_from_mw  q_from_mvar       p_to_mw  q_to_mvar         pl_mw       ql_mvar  i_from_ka   i_to_ka      i_ka  vm_from_pu  va_from_degree  vm_to_pu  va_to_degree  loading_percent
0   5.120740e-05     0.039717 -4.966445e-05  -0.039716  1.542953e-06  1.203066e-06   0.001529  0.001529  0.001529    1.000000        0.000006  0.999970      0.002230         0.664657
1   1.323149e-04     0.044554 -1.269753e-04  -0.044550  5.339622e-06  4.163392e-06   0.001715  0.001715  0.001715    1.000000        0.000007  0.999906      0.006858         0.745607
2   4.628921e-07     0.028993  1.871486e-07  -0.028992  6.500407e-07  5.068474e-07   0.001116  0.001116  0.001116    0.999970        0.002230  0.999952      0.003514         0.485201
3  -1.009424e-08     0.005798  2.172351e-08  -0.005798  1.162927e-08  9.067535e-09   0.000223  0.000223  0.000223    0.999906        0.006858  0.999905      0.006973         0.097044
4   1.157487e-07     0.021261  1.314655e-07  -0.021261  2.472142e-07  1.927570e-07   0.000818  0.000818  0.000818    0.999906        0.006858  0.999897      0.007524         0.355832
5   3.920213e-05     0.009723  5.020720e-06  -0.009689  4.422285e-05  3.448128e-05   0.014035  0.014035  0.014035    0.999970        0.002236  0.996416      0.262928         6.102133
6   9.714477e-05     0.006794 -6.131706e-05  -0.006766  3.582771e-05  2.793546e-05   0.009809  0.009809  0.009809    0.999906        0.006868  0.995734      0.306824         4.264630
7  -8.215649e-07     0.001935  3.351071e-06  -0.001933  2.529507e-06  1.972298e-06   0.002793  0.002793  0.002793    0.999906        0.006868  0.998888      0.081877         1.214290
8   2.054620e-05     0.007762 -1.018602e-05  -0.007754  1.036018e-05  8.078004e-06   0.011204  0.011204  0.011204    0.999906        0.006868  0.998863      0.083267         4.871357
9   1.050274e-09    -0.019328  1.281535e-07   0.019328  1.292038e-07  1.007423e-07   0.000744  0.000744  0.000744    0.999947        0.003897  0.999952      0.003514         0.323468
10 -2.180281e-13    -0.010630  5.527374e-08   0.010630  5.527352e-08  4.309768e-08   0.000409  0.000409  0.000409    0.999943        0.004195  0.999947      0.003897         0.177908
11 -5.519075e-09     0.009664  5.120419e-08  -0.009664  4.568512e-08  3.562144e-08   0.000372  0.000372  0.000372    0.999897        0.007524  0.999893      0.007795         0.161742
12 -1.019493e-06    -0.004838  1.503032e-05   0.004849  1.401083e-05  1.092447e-05   0.007024  0.007024  0.007024    0.994166        0.428455  0.996416      0.262928         3.053938
13  5.171052e-07    -0.003866  9.572921e-06   0.003873  1.009003e-05  7.867360e-06   0.005611  0.005611  0.005611    0.994389        0.412194  0.996416      0.262928         2.439563
14 -1.468596e-09    -0.002899  7.726437e-06   0.002905  7.724968e-06  6.023285e-06   0.004218  0.004218  0.004218    0.992101        0.580803  0.994166      0.428455         1.833889
15  1.360385e-05     0.004854  1.513482e-05  -0.004832  2.873868e-05  2.240802e-05   0.007015  0.007015  0.007015    0.998863        0.083267  0.994253      0.423292         3.049886
16 -1.158230e-03    -0.000966  1.160235e-03   0.000968  2.004782e-06  1.563162e-06   0.002190  0.002190  0.002190    0.994060        0.310014  0.995734      0.306824         0.952292
--------------------------------------------------

TRAFO:
    p_hv_mw  q_hv_mvar   p_lv_mw  q_lv_mvar    pl_mw  ql_mvar   i_hv_ka   i_lv_ka  vm_hv_pu  va_hv_degree  vm_lv_pu  va_lv_degree  loading_percent
0  0.000049   0.010723 -0.000039  -0.009723  0.00001    0.001  0.000413  0.014035  0.999970      0.002230  0.999970      0.002236         0.107236
1  0.000127   0.017491 -0.000117  -0.016491  0.00001    0.001  0.000673  0.023805  0.999906      0.006858  0.999906      0.006868         0.174926
2  0.000061   0.043717 -0.000051  -0.039717  0.00001    0.004  0.000361  0.001529  1.000000      0.000000  1.000000      0.000006         0.109293
3  0.000142   0.048554 -0.000132  -0.044554  0.00001    0.004  0.000400  0.001715  1.000000      0.000000  1.000000      0.000007         0.121386
--------------------------------------------------
